examples/cigre/opendss/Kersting6p1_Power_elem_kVA.txt

CIRCUIT ELEMENT POWER FLOW

(Power Flow into element from indicated Bus)

Power Delivery Elements

  Bus Phase     kW     +j   kvar         kVA         PF

ELEMENT = "Vsource.SOURCE"
R1       1    -17853325.3 +j -35458711.3   39699640.2       0.4497
R1       2    -17853325.3 +j -35458711.3   39699640.2       0.4497
R1       3    -17853325.3 +j -35458711.3   39699640.2       0.4497
   TERMINAL TOTAL-53559976.0 +j -106376134.0   119098920.7       0.4497
R1       0         0.0 +j      0.0        0.0       1.0000
R1       0         0.0 +j      0.0        0.0       1.0000
R1       0         0.0 +j      0.0        0.0       1.0000
   TERMINAL TOTAL     0.0 +j      0.0        0.0       1.0000

ELEMENT = "Line.1-2"
R1       1    17853325.3 +j 35458711.3   39699640.2       0.4497
R1       2    17853325.3 +j 35458711.3   39699640.2       0.4497
R1       3    17853325.3 +j 35458711.3   39699640.2       0.4497
   TERMINAL TOTAL53559976.0 +j 106376134.0   119098920.7       0.4497
R10      1    -709403.8 +j -343579.9   788226.4       0.9000
R10      2    -709403.8 +j -343579.9   788226.4       0.9000
R10      3    -709403.8 +j -343579.9   788226.4       0.9000
   TERMINAL TOTAL-2128211.3 +j -1030739.8   2364679.2       0.9000

= = = = = = = = = = = = = = = = = = =  = = = = = = = = = = =  = =

Power Conversion Elements

  Bus Phase     kW   +j  kvar         kVA         PF

ELEMENT = "Load.BUS2"
R10      1    709403.8 +j 343579.9   788226.4       0.9000
R10      2    709403.8 +j 343579.9   788226.4       0.9000
R10      3    709403.8 +j 343579.9   788226.4       0.9000
R10      0       0.0 +j    0.0        0.0       1.0000
  TERMINAL TOTAL 2128211.3 +j 1030739.8   2364679.2       0.9000


Total Circuit Losses = 51431764.7 +j 105345394.2
